data_Si
_audit_creation_date              2011-06-17
_audit_creation_method            'Materials Studio'
_symmetry_space_group_name_H-M    'FD-3M'
_symmetry_Int_Tables_number       227
_symmetry_cell_setting            cubic
loop_
_symmetry_equiv_pos_as_xyz
  x,y,z
  -x,-y+1/2,z+1/2
  -x+1/2,y+1/2,-z
  x+1/2,-y,-z+1/2
  z,x,y
  z+1/2,-x,-y+1/2
  -z,-x+1/2,y+1/2
  -z+1/2,x+1/2,-y
  y,z,x
  -y+1/2,z+1/2,-x
  y+1/2,-z,-x+1/2
  -y,-z+1/2,x+1/2
  y+3/4,x+1/4,-z+3/4
  -y+1/4,-x+1/4,-z+1/4
  y+1/4,-x+3/4,z+3/4
  -y+3/4,x+3/4,z+1/4
  x+3/4,z+1/4,-y+3/4
  -x+3/4,z+3/4,y+1/4
  -x+1/4,-z+1/4,-y+1/4
  x+1/4,-z+3/4,y+3/4
  z+3/4,y+1/4,-x+3/4
  z+1/4,-y+3/4,x+3/4
  -z+3/4,y+3/4,x+1/4
  -z+1/4,-y+1/4,-x+1/4
  -x+1/4,-y+1/4,-z+1/4
  x+1/4,y+3/4,-z+3/4
  x+3/4,-y+3/4,z+1/4
  -x+3/4,y+1/4,z+3/4
  -z+1/4,-x+1/4,-y+1/4
  -z+3/4,x+1/4,y+3/4
  z+1/4,x+3/4,-y+3/4
  z+3/4,-x+3/4,y+1/4
  -y+1/4,-z+1/4,-x+1/4
  y+3/4,-z+3/4,x+1/4
  -y+3/4,z+1/4,x+3/4
  y+1/4,z+3/4,-x+3/4
  -y+1/2,-x,z+1/2
  y,x,z
  -y,x+1/2,-z+1/2
  y+1/2,-x+1/2,-z
  -x+1/2,-z,y+1/2
  x+1/2,-z+1/2,-y
  x,z,y
  -x,z+1/2,-y+1/2
  -z+1/2,-y,x+1/2
  -z,y+1/2,-x+1/2
  z+1/2,-y+1/2,-x
  z,y,x
  x,y+1/2,z+1/2
  -x,-y,z
  -x+1/2,y,-z+1/2
  x+1/2,-y+1/2,-z
  z,x+1/2,y+1/2
  z+1/2,-x+1/2,-y
  -z,-x,y
  -z+1/2,x,-y+1/2
  y,z+1/2,x+1/2
  -y+1/2,z,-x+1/2
  y+1/2,-z+1/2,-x
  -y,-z,x
  y+3/4,x+3/4,-z+1/4
  -y+1/4,-x+3/4,-z+3/4
  y+1/4,-x+1/4,z+1/4
  -y+3/4,x+1/4,z+3/4
  x+3/4,z+3/4,-y+1/4
  -x+3/4,z+1/4,y+3/4
  -x+1/4,-z+3/4,-y+3/4
  x+1/4,-z+1/4,y+1/4
  z+3/4,y+3/4,-x+1/4
  z+1/4,-y+1/4,x+1/4
  -z+3/4,y+1/4,x+3/4
  -z+1/4,-y+3/4,-x+3/4
  -x+1/4,-y+3/4,-z+3/4
  x+1/4,y+1/4,-z+1/4
  x+3/4,-y+1/4,z+3/4
  -x+3/4,y+3/4,z+1/4
  -z+1/4,-x+3/4,-y+3/4
  -z+3/4,x+3/4,y+1/4
  z+1/4,x+1/4,-y+1/4
  z+3/4,-x+1/4,y+3/4
  -y+1/4,-z+3/4,-x+3/4
  y+3/4,-z+1/4,x+3/4
  -y+3/4,z+3/4,x+1/4
  y+1/4,z+1/4,-x+1/4
  -y+1/2,-x+1/2,z
  y,x+1/2,z+1/2
  -y,x,-z
  y+1/2,-x,-z+1/2
  -x+1/2,-z+1/2,y
  x+1/2,-z,-y+1/2
  x,z+1/2,y+1/2
  -x,z,-y
  -z+1/2,-y+1/2,x
  -z,y,-x
  z+1/2,-y,-x+1/2
  z,y+1/2,x+1/2
  x+1/2,y,z+1/2
  -x+1/2,-y+1/2,z
  -x,y+1/2,-z+1/2
  x,-y,-z
  z+1/2,x,y+1/2
  z,-x,-y
  -z+1/2,-x+1/2,y
  -z,x+1/2,-y+1/2
  y+1/2,z,x+1/2
  -y,z+1/2,-x+1/2
  y,-z,-x
  -y+1/2,-z+1/2,x
  y+1/4,x+1/4,-z+1/4
  -y+3/4,-x+1/4,-z+3/4
  y+3/4,-x+3/4,z+1/4
  -y+1/4,x+3/4,z+3/4
  x+1/4,z+1/4,-y+1/4
  -x+1/4,z+3/4,y+3/4
  -x+3/4,-z+1/4,-y+3/4
  x+3/4,-z+3/4,y+1/4
  z+1/4,y+1/4,-x+1/4
  z+3/4,-y+3/4,x+1/4
  -z+1/4,y+3/4,x+3/4
  -z+3/4,-y+1/4,-x+3/4
  -x+3/4,-y+1/4,-z+3/4
  x+3/4,y+3/4,-z+1/4
  x+1/4,-y+3/4,z+3/4
  -x+1/4,y+1/4,z+1/4
  -z+3/4,-x+1/4,-y+3/4
  -z+1/4,x+1/4,y+1/4
  z+3/4,x+3/4,-y+1/4
  z+1/4,-x+3/4,y+3/4
  -y+3/4,-z+1/4,-x+3/4
  y+1/4,-z+3/4,x+3/4
  -y+1/4,z+1/4,x+1/4
  y+3/4,z+3/4,-x+1/4
  -y,-x,z
  y+1/2,x,z+1/2
  -y+1/2,x+1/2,-z
  y,-x+1/2,-z+1/2
  -x,-z,y
  x,-z+1/2,-y+1/2
  x+1/2,z,y+1/2
  -x+1/2,z+1/2,-y
  -z,-y,x
  -z+1/2,y+1/2,-x
  z,-y+1/2,-x+1/2
  z+1/2,y,x+1/2
  x+1/2,y+1/2,z
  -x+1/2,-y,z+1/2
  -x,y,-z
  x,-y+1/2,-z+1/2
  z+1/2,x+1/2,y
  z,-x+1/2,-y+1/2
  -z+1/2,-x,y+1/2
  -z,x,-y
  y+1/2,z+1/2,x
  -y,z,-x
  y,-z+1/2,-x+1/2
  -y+1/2,-z,x+1/2
  y+1/4,x+3/4,-z+3/4
  -y+3/4,-x+3/4,-z+1/4
  y+3/4,-x+1/4,z+3/4
  -y+1/4,x+1/4,z+1/4
  x+1/4,z+3/4,-y+3/4
  -x+1/4,z+1/4,y+1/4
  -x+3/4,-z+3/4,-y+1/4
  x+3/4,-z+1/4,y+3/4
  z+1/4,y+3/4,-x+3/4
  z+3/4,-y+1/4,x+3/4
  -z+1/4,y+1/4,x+1/4
  -z+3/4,-y+3/4,-x+1/4
  -x+3/4,-y+3/4,-z+1/4
  x+3/4,y+1/4,-z+3/4
  x+1/4,-y+1/4,z+1/4
  -x+1/4,y+3/4,z+3/4
  -z+3/4,-x+3/4,-y+1/4
  -z+1/4,x+3/4,y+3/4
  z+3/4,x+1/4,-y+3/4
  z+1/4,-x+1/4,y+1/4
  -y+3/4,-z+3/4,-x+1/4
  y+1/4,-z+1/4,x+1/4
  -y+1/4,z+3/4,x+3/4
  y+3/4,z+1/4,-x+3/4
  -y,-x+1/2,z+1/2
  y+1/2,x+1/2,z
  -y+1/2,x,-z+1/2
  y,-x,-z
  -x,-z+1/2,y+1/2
  x,-z,-y
  x+1/2,z+1/2,y
  -x+1/2,z,-y+1/2
  -z,-y+1/2,x+1/2
  -z+1/2,y,-x+1/2
  z,-y,-x
  z+1/2,y+1/2,x
_cell_length_a                    5.4307
_cell_length_b                    5.4307
_cell_length_c                    5.4307
_cell_angle_alpha                 90.0000
_cell_angle_beta                  90.0000
_cell_angle_gamma                 90.0000
loop_
_atom_site_label
_atom_site_type_symbol
_atom_site_fract_x
_atom_site_fract_y
_atom_site_fract_z
_atom_site_U_iso_or_equiv
_atom_site_adp_type
_atom_site_occupancy
SI1    Si    0.00000   0.00000   0.00000   0.00000  Uiso   1.00
loop_
_geom_bond_atom_site_label_1
_geom_bond_atom_site_label_2
_geom_bond_distance
_geom_bond_site_symmetry_2
_ccdc_geom_bond_type
SI1    SI1     2.352   14    S
SI1    SI1     2.352   16_445 S
SI1    SI1     2.352   13_454 S
SI1    SI1     2.352   15_544 S
